#!/sbin/sh

ui_print() { echo "ui_print $1"; echo "ui_print"; }
abort() { ui_print "$1"; exit 1; }

ZIPFILE=$3
MODPATH=/data/adb/modules_update/cliproxyapi

rm -rf "$MODPATH"
mkdir -p "$MODPATH"
unzip -o "$ZIPFILE" -x 'META-INF/*' -d "$MODPATH" >&2 || abort "Unzip failed"

ABI=$(getprop ro.product.cpu.abi)
case "$ABI" in
  arm64-v8a) ARCH=arm64 ;;
  armeabi-v7a|armeabi) ARCH=arm ;;
  x86_64) ARCH=x64 ;;
  x86) ARCH=x86 ;;
  *) ARCH="$ABI" ;;
esac
export ZIPFILE MODPATH ARCH

. "$MODPATH/customize.sh" || abort "Install failed"
ui_print "- Done"
exit 0
